SOLVER= EULER
MATH_PROBLEM= DIRECT
MACH_NUMBER= 0.14693
AOA= 2.0
FREESTREAM_DENSITY= 1.225
FREESTREAM_VELOCITY= ( 50.0, 0.0, 0.0 )
REF_AREA= 1.0
REF_LENGTH= 1.0
REF_ORIGIN_MOMENT_X= 0.25
REF_ORIGIN_MOMENT_Y= 0.0
REF_ORIGIN_MOMENT_Z= 0.0
CONV_RESIDUAL_MINVAL= -8
ITER= 10000
OUTPUT_WRT_FREQ= 100
